$ -------------------------------------------------------------------- $
$ WAVEWATCH III Field preprocessor input file                          $
$ -------------------------------------------------------------------- $
   'CUR' 'LL' T T
$
    265.0  278.0  157  18.0  31.0  157
$
  'NAME' 3 1 '(..T..)' '(..F..)' 
  45 'current.inp'
$ -------------------------------------------------------------------- $
$ End of input file                                                    $
$ -------------------------------------------------------------------- $
